ZINC000043198590
     RDKit          3D

 46 47  0  0  1  0  0  0  0  0999 V2000
   18.3313    7.0437   55.4360 O   0  0  0  0  0  0  0  0  0  0  0  0
   17.5865    6.3215   56.4106 C   0  0  0  0  0  0  0  0  0  0  0  0
   18.5842    5.2442   56.9491 C   0  0  0  0  0  0  0  0  0  0  0  0
   18.9083    4.2230   55.8711 C   0  0  0  0  0  0  0  0  0  0  0  0
   18.1611    4.0544   54.7725 C   0  0  0  0  0  0  0  0  0  0  0  0
   16.8589    4.7942   54.4970 C   0  0  0  0  0  0  0  0  0  0  0  0
   16.3455    5.6059   55.7226 C   0  0  0  0  0  0  0  0  0  0  0  0
   15.7508    4.6984   56.6359 O   0  0  0  0  0  0  0  0  0  0  0  0
   15.1842    6.5009   55.1793 C   0  0  0  0  0  0  0  0  0  0  0  0
   14.1373    7.1104   56.1360 C   0  0  0  0  0  0  0  0  0  0  0  0
   13.8042    8.5666   55.7458 C   0  0  0  0  0  0  0  0  0  0  0  0
   12.9829    9.3302   56.7955 C   0  0  0  0  0  0  0  0  0  0  0  0
   13.2921   10.8328   56.9349 C   0  0  0  0  0  0  0  0  0  0  0  0
   14.3760   11.3859   57.8569 C   0  0  0  0  0  0  0  0  0  0  0  0
   15.7744   10.9227   57.5261 C   0  0  0  0  0  0  0  0  0  0  0  0
   15.9882    9.4881   58.0011 C   0  0  0  0  0  0  0  0  0  0  0  0
   17.0203    8.7711   57.1464 C   0  0  0  0  0  0  0  0  0  0  0  0
   17.2130    7.3012   57.5537 C   0  0  0  0  0  0  0  0  0  0  0  0
   18.3857    6.4616   54.6744 H   0  0  0  0  0  0  0  0  0  0  0  0
   19.5154    5.7023   57.2781 H   0  0  0  0  0  0  0  0  0  0  0  0
   18.1861    4.7325   57.8276 H   0  0  0  0  0  0  0  0  0  0  0  0
   19.8000    3.6235   55.9542 H   0  0  0  0  0  0  0  0  0  0  0  0
   18.5016    3.3049   54.0671 H   0  0  0  0  0  0  0  0  0  0  0  0
   17.0246    5.4375   53.6321 H   0  0  0  0  0  0  0  0  0  0  0  0
   16.0784    4.1023   54.1975 H   0  0  0  0  0  0  0  0  0  0  0  0
   16.3861    4.5389   57.3441 H   0  0  0  0  0  0  0  0  0  0  0  0
   15.6315    7.3007   54.6142 H   0  0  0  0  0  0  0  0  0  0  0  0
   14.6095    5.9399   54.4386 H   0  0  0  0  0  0  0  0  0  0  0  0
   13.2257    6.5101   56.1152 H   0  0  0  0  0  0  0  0  0  0  0  0
   14.4666    7.0499   57.1666 H   0  0  0  0  0  0  0  0  0  0  0  0
   14.7109    9.1256   55.5380 H   0  0  0  0  0  0  0  0  0  0  0  0
   13.2715    8.5660   54.7927 H   0  0  0  0  0  0  0  0  0  0  0  0
   11.9859    9.2848   56.3901 H   0  0  0  0  0  0  0  0  0  0  0  0
   12.9335    8.8386   57.7683 H   0  0  0  0  0  0  0  0  0  0  0  0
   13.5858   11.1769   55.9499 H   0  0  0  0  0  0  0  0  0  0  0  0
   12.3648   11.3251   57.2124 H   0  0  0  0  0  0  0  0  0  0  0  0
   14.3460   12.4693   57.7548 H   0  0  0  0  0  0  0  0  0  0  0  0
   14.1541   11.1945   58.9029 H   0  0  0  0  0  0  0  0  0  0  0  0
   15.9313   11.0290   56.4550 H   0  0  0  0  0  0  0  0  0  0  0  0
   16.5034   11.5818   57.9975 H   0  0  0  0  0  0  0  0  0  0  0  0
   16.2940    9.4964   59.0360 H   0  0  0  0  0  0  0  0  0  0  0  0
   15.0785    8.9119   58.0501 H   0  0  0  0  0  0  0  0  0  0  0  0
   16.7295    8.8403   56.1026 H   0  0  0  0  0  0  0  0  0  0  0  0
   17.9721    9.2997   57.2132 H   0  0  0  0  0  0  0  0  0  0  0  0
   16.3534    6.9135   58.0964 H   0  0  0  0  0  0  0  0  0  0  0  0
   17.9856    7.2926   58.3198 H   0  0  0  0  0  0  0  0  0  0  0  0
  1 19  1  0
  1  2  1  0
  2  7  1  0
  2 18  1  0
  2  3  1  0
  3  4  1  0
  3 20  1  0
  3 21  1  0
  4  5  2  0
  4 22  1  0
  5  6  1  0
  5 23  1  0
  6  7  1  0
  6 24  1  0
  6 25  1  0
  7  8  1  0
  7  9  1  0
  8 26  1  0
  9 10  1  0
  9 27  1  0
  9 28  1  0
 10 11  1  0
 10 29  1  0
 10 30  1  0
 11 12  1  0
 11 31  1  0
 11 32  1  0
 12 13  1  0
 12 33  1  0
 12 34  1  0
 13 14  1  0
 13 35  1  0
 13 36  1  0
 14 15  1  0
 14 37  1  0
 14 38  1  0
 15 16  1  0
 15 39  1  0
 15 40  1  0
 16 17  1  0
 16 41  1  0
 16 42  1  0
 17 18  1  0
 17 43  1  0
 17 44  1  0
 18 45  1  0
 18 46  1  0
M  END
>  <s_m_entry_id>  (1) 
1911

>  <s_m_entry_name>  (1) 
sp_hie135HBDo_allmerge_pv_cutoof-8.933

>  <s_m_Source_Path>  (1) 
/data/ALM_suwipa

>  <s_m_Source_File>  (1) 
sp_hie135HBDo_allmerge_pv_cutoof-8.sdf

>  <i_m_Source_File_Index>  (1) 
933

>  <i_lp_mmshare_version>  (1) 
36015

>  <r_lp_tautomer_probability>  (1) 
1

>  <r_epik_Ionization_Penalty>  (1) 
  0.0000

>  <r_epik_Ionization_Penalty_Charging>  (1) 
  0.0000

>  <r_epik_Ionization_Penalty_Neutral>  (1) 
  0.0000

>  <r_epik_State_Penalty>  (1) 
  0.0000

>  <r_epik_Charging_Adjusted_Penalty>  (1) 
0

>  <i_epik_Tot_Q>  (1) 
0

>  <i_epik_Tot_abs_Q>  (1) 
0

>  <i_f3d_flags>  (1) 
0

>  <s_lp_Force_Field>  (1) 
OPLS3

>  <r_lp_Energy>  (1) 
25.36929836746

>  <b_lp_Chiralities_Consistent>  (1) 
1

>  <s_lp_Variant>  (1) 
ZINC000043198590-1

>  <SEL>  (1) 
YES

>  <chiral flag>  (1) 
1

>  <version>  (1) 
0

>  <s_i_glide_gridfile>  (1) 
glide-grid_h5ndzOK_centerAZ8838_box15A_constraintH135HD

>  <i_i_glide_lignum>  (1) 
155

>  <i_i_glide_rotatable_bonds>  (1) 
2

>  <r_i_docking_score>  (1) 
-8.04403318139555

>  <r_i_glide_ligand_efficiency>  (1) 
-0.446890732299753

>  <r_i_glide_ligand_efficiency_sa>  (1) 
-1.1711850396979

>  <r_i_glide_ligand_efficiency_ln>  (1) 
-2.0676772509128

>  <r_i_glide_gscore>  (1) 
-8.04403318139555

>  <r_i_glide_lipo>  (1) 
-2.75998481887264

>  <r_i_glide_hbond>  (1) 
-0.673080092103937

>  <r_i_glide_metal>  (1) 
0

>  <r_i_glide_rewards>  (1) 
-2.23897110473904

>  <r_i_glide_evdw>  (1) 
-22.2719707489014

>  <r_i_glide_ecoul>  (1) 
-8.38932418823242

>  <r_i_glide_erotb>  (1) 
0

>  <r_i_glide_esite>  (1) 
0

>  <r_i_glide_emodel>  (1) 
-42.7021190575528

>  <r_i_glide_energy>  (1) 
-30.6612949371338

>  <r_i_glide_einternal>  (1) 
2.34655046463013

>  <i_i_glide_confnum>  (1) 
1

>  <i_i_glide_posenum>  (1) 
692

>  <r_i_glide_eff_state_penalty>  (1) 
0

>  <b_glide_conssat_A:HIE:135:HE2(hbond)>  (1) 
1

>  <s_m_subgroup_title>  (1) 
sp_hie135HBDo_allmerge_pv_cutoof-8

>  <s_m_subgroupid>  (1) 
sp_hie135HBDo_allmerge_pv_cutoof-8

>  <b_m_subgroup_collapsed>  (1) 
0

$$$$
ZINC000043198590
     RDKit          3D

 46 47  0  0  1  0  0  0  0  0999 V2000
   18.3775    6.9128   55.4787 O   0  0  0  0  0  0  0  0  0  0  0  0
   17.6142    6.3130   56.5340 C   0  0  0  0  0  0  0  0  0  0  0  0
   18.5625    5.2997   57.2640 C   0  0  0  0  0  0  0  0  0  0  0  0
   18.7990    4.0717   56.4264 C   0  0  0  0  0  0  0  0  0  0  0  0
   18.0658    3.7542   55.3613 C   0  0  0  0  0  0  0  0  0  0  0  0
   16.8245    4.5126   54.9196 C   0  0  0  0  0  0  0  0  0  0  0  0
   16.3457    5.5342   55.9918 C   0  0  0  0  0  0  0  0  0  0  0  0
   15.7253    4.8209   57.0656 O   0  0  0  0  0  0  0  0  0  0  0  0
   15.2242    6.3878   55.3124 C   0  0  0  0  0  0  0  0  0  0  0  0
   14.1648    7.0882   56.1964 C   0  0  0  0  0  0  0  0  0  0  0  0
   13.8249    8.5154   55.7284 C   0  0  0  0  0  0  0  0  0  0  0  0
   13.0217    9.3119   56.7732 C   0  0  0  0  0  0  0  0  0  0  0  0
   13.3133   10.8203   56.8586 C   0  0  0  0  0  0  0  0  0  0  0  0
   14.3672   11.4241   57.7961 C   0  0  0  0  0  0  0  0  0  0  0  0
   15.7880   11.0426   57.4204 C   0  0  0  0  0  0  0  0  0  0  0  0
   16.0688    9.6146   57.8656 C   0  0  0  0  0  0  0  0  0  0  0  0
   17.0569    8.8575   56.9963 C   0  0  0  0  0  0  0  0  0  0  0  0
   17.2327    7.4284   57.5307 C   0  0  0  0  0  0  0  0  0  0  0  0
   19.0046    7.5235   55.8885 H   0  0  0  0  0  0  0  0  0  0  0  0
   19.5448    5.7129   57.4656 H   0  0  0  0  0  0  0  0  0  0  0  0
   18.1627    4.9895   58.2305 H   0  0  0  0  0  0  0  0  0  0  0  0
   19.6142    3.4235   56.6574 H   0  0  0  0  0  0  0  0  0  0  0  0
   18.4175    2.9129   54.8024 H   0  0  0  0  0  0  0  0  0  0  0  0
   17.0553    5.0089   53.9763 H   0  0  0  0  0  0  0  0  0  0  0  0
   16.0273    3.8015   54.7039 H   0  0  0  0  0  0  0  0  0  0  0  0
   16.0643    5.1361   57.9259 H   0  0  0  0  0  0  0  0  0  0  0  0
   15.7070    7.1066   54.6656 H   0  0  0  0  0  0  0  0  0  0  0  0
   14.6568    5.7576   54.6242 H   0  0  0  0  0  0  0  0  0  0  0  0
   13.2505    6.4926   56.2123 H   0  0  0  0  0  0  0  0  0  0  0  0
   14.4800    7.1048   57.2338 H   0  0  0  0  0  0  0  0  0  0  0  0
   14.7213    9.0672   55.4679 H   0  0  0  0  0  0  0  0  0  0  0  0
   13.2663    8.4613   54.7919 H   0  0  0  0  0  0  0  0  0  0  0  0
   12.0142    9.2343   56.4021 H   0  0  0  0  0  0  0  0  0  0  0  0
   13.0051    8.8575   57.7651 H   0  0  0  0  0  0  0  0  0  0  0  0
   13.6142   11.1236   55.8656 H   0  0  0  0  0  0  0  0  0  0  0  0
   12.3729   11.3128   57.0867 H   0  0  0  0  0  0  0  0  0  0  0  0
   14.2743   12.5098   57.7185 H   0  0  0  0  0  0  0  0  0  0  0  0
   14.1680   11.1887   58.8380 H   0  0  0  0  0  0  0  0  0  0  0  0
   15.9138   11.1633   56.3460 H   0  0  0  0  0  0  0  0  0  0  0  0
   16.5019   11.7241   57.8836 H   0  0  0  0  0  0  0  0  0  0  0  0
   16.4142    9.6396   58.8872 H   0  0  0  0  0  0  0  0  0  0  0  0
   15.1672    9.0321   57.9729 H   0  0  0  0  0  0  0  0  0  0  0  0
   16.7327    8.8470   55.9609 H   0  0  0  0  0  0  0  0  0  0  0  0
   18.0125    9.3824   56.9915 H   0  0  0  0  0  0  0  0  0  0  0  0
   16.3925    7.1114   58.1450 H   0  0  0  0  0  0  0  0  0  0  0  0
   18.0142    7.5090   58.2657 H   0  0  0  0  0  0  0  0  0  0  0  0
  1 19  1  0
  1  2  1  0
  2  7  1  0
  2 18  1  0
  2  3  1  0
  3  4  1  0
  3 20  1  0
  3 21  1  0
  4  5  2  0
  4 22  1  0
  5  6  1  0
  5 23  1  0
  6  7  1  0
  6 24  1  0
  6 25  1  0
  7  8  1  0
  7  9  1  0
  8 26  1  0
  9 10  1  0
  9 27  1  0
  9 28  1  0
 10 11  1  0
 10 29  1  0
 10 30  1  0
 11 12  1  0
 11 31  1  0
 11 32  1  0
 12 13  1  0
 12 33  1  0
 12 34  1  0
 13 14  1  0
 13 35  1  0
 13 36  1  0
 14 15  1  0
 14 37  1  0
 14 38  1  0
 15 16  1  0
 15 39  1  0
 15 40  1  0
 16 17  1  0
 16 41  1  0
 16 42  1  0
 17 18  1  0
 17 43  1  0
 17 44  1  0
 18 45  1  0
 18 46  1  0
M  END
>  <s_m_entry_id>  (2) 
4

>  <s_m_entry_name>  (2) 
sp_hid135HBAcc_allmerge_pv_cutoof-65.4

>  <s_m_Source_Path>  (2) 
/data/ALM_suwipa

>  <s_m_Source_File>  (2) 
sp_hid135HBAcc_allmerge_pv_cutoof-65.sdf

>  <i_m_Source_File_Index>  (2) 
4

>  <i_lp_mmshare_version>  (2) 
36015

>  <r_lp_tautomer_probability>  (2) 
1

>  <r_epik_Ionization_Penalty>  (2) 
  0.0000

>  <r_epik_Ionization_Penalty_Charging>  (2) 
  0.0000

>  <r_epik_Ionization_Penalty_Neutral>  (2) 
  0.0000

>  <r_epik_State_Penalty>  (2) 
  0.0000

>  <r_epik_Charging_Adjusted_Penalty>  (2) 
0

>  <i_epik_Tot_Q>  (2) 
0

>  <i_epik_Tot_abs_Q>  (2) 
0

>  <i_f3d_flags>  (2) 
0

>  <s_lp_Force_Field>  (2) 
OPLS3

>  <r_lp_Energy>  (2) 
25.36929836746

>  <b_lp_Chiralities_Consistent>  (2) 
1

>  <s_lp_Variant>  (2) 
ZINC000043198590-1

>  <SEL>  (2) 
YES

>  <chiral flag>  (2) 
1

>  <version>  (2) 
0

>  <s_i_glide_gridfile>  (2) 
glide-grid_h5ndzallositAZ8838_HID135_HBAc

>  <i_i_glide_lignum>  (2) 
2

>  <i_i_glide_rotatable_bonds>  (2) 
2

>  <r_i_docking_score>  (2) 
-8.72923652020912

>  <r_i_glide_ligand_efficiency>  (2) 
-0.484957584456062

>  <r_i_glide_ligand_efficiency_sa>  (2) 
-1.27094841479505

>  <r_i_glide_ligand_efficiency_ln>  (2) 
-2.24380523596277

>  <r_i_glide_gscore>  (2) 
-8.72923652020912

>  <r_i_glide_lipo>  (2) 
-2.66885523586037

>  <r_i_glide_hbond>  (2) 
-1.08490726560756

>  <r_i_glide_metal>  (2) 
0

>  <r_i_glide_rewards>  (2) 
-1.80292548625522

>  <r_i_glide_evdw>  (2) 
-18.0826568603516

>  <r_i_glide_ecoul>  (2) 
-15.1227712631226

>  <r_i_glide_erotb>  (2) 
0

>  <r_i_glide_esite>  (2) 
0

>  <r_i_glide_emodel>  (2) 
-51.5099670733675

>  <r_i_glide_energy>  (2) 
-33.2054281234741

>  <r_i_glide_einternal>  (2) 
1.44705939292908

>  <i_i_glide_confnum>  (2) 
1

>  <i_i_glide_posenum>  (2) 
708

>  <r_i_glide_eff_state_penalty>  (2) 
0

>  <b_glide_conssat_A:HIS:135:NE2(hbond)>  (2) 
1

>  <s_m_subgroup_title>  (2) 
sp_hid135HBAcc_allmerge_pv_cutoof-65

>  <s_m_subgroupid>  (2) 
sp_hid135HBAcc_allmerge_pv_cutoof-65

>  <b_m_subgroup_collapsed>  (2) 
0

$$$$
